@<TRIPOS>MOLECULE
benzene
   12    12     1     0     0
SMALL
No Charge or Current Charge


@<TRIPOS>ATOM
      1 C1          1.8850   -1.0360   -0.1120 ca        1 BEN     -0.130100
      2 C2          0.8070   -0.4630    0.5610 ca        1 BEN     -0.130100
      3 C3          2.9210   -1.6310    0.6080 ca        1 BEN     -0.130100
      4 C4          0.7640   -0.4840    1.9550 ca        1 BEN     -0.130100
      5 C5          2.8780   -1.6520    2.0020 ca        1 BEN     -0.130100
      6 C6          1.8000   -1.0790    2.6760 ca        1 BEN     -0.130100
      7 H1          1.9170   -1.0200   -1.1980 ha        1 BEN      0.130100
      8 H2          0.0000    0.0000   -0.0000 ha        1 BEN      0.130100
      9 H3          3.7610   -2.0770    0.0840 ha        1 BEN      0.130100
     10 H4         -0.0760   -0.0380    2.4790 ha        1 BEN      0.130100
     11 H5          3.6850   -2.1150    2.5630 ha        1 BEN      0.130100
     12 H6          1.7660   -1.0950    3.7610 ha        1 BEN      0.130100
@<TRIPOS>BOND
     1    1    2 ar  
     2    1    3 ar  
     3    2    4 ar  
     4    3    5 ar  
     5    4    6 ar  
     6    5    6 ar  
     7    1    7 1   
     8    2    8 1   
     9    3    9 1   
    10    4   10 1   
    11    5   11 1   
    12    6   12 1   
@<TRIPOS>SUBSTRUCTURE
     1 BEN         1 TEMP              0 ****  ****    0 ROOT
