@<TRIPOS>MOLECULE
STI
   69    73     0     0     0
SMALL
USER_CHARGES

@<TRIPOS>ATOM
      1 C1         22.8270   11.7250   13.7800 C.ar      1 MOL        -0.2556
      2 C2         22.0360   12.1770   14.8390 C.ar      1 MOL        -0.0478
      3 C3         20.6680   11.8090   14.9590 C.ar      1 MOL        -0.2838
      4 C4         20.1400   11.0010   13.9470 C.ar      1 MOL         0.4206
      5 N1         20.8920   10.5700   12.9040 N.ar      1 MOL        -0.6659
      6 C5         22.1760   10.9310   12.8420 C.ar      1 MOL         0.4134
      7 C6         19.7780   12.2610   16.1190 C.ar      1 MOL         0.5485
      8 C7         20.2660   12.8280   17.2280 C.ar      1 MOL        -0.4055
      9 C8         19.3470   13.1770   18.2350 C.ar      1 MOL         0.4606
     10 N2         18.0470   12.9440   18.0700 N.ar      1 MOL        -0.7397
     11 C9         17.5930   12.3830   16.9620 C.ar      1 MOL         0.8864
     12 N3         18.4330   12.0210   15.9770 N.ar      1 MOL        -0.7619
     13 N4         16.2540   12.1250   16.6950 N.pl3     1 MOL        -0.7455
     14 C10        15.3460   12.2710   17.7100 C.ar      1 MOL         0.1758
     15 C11        15.2340   11.3050   18.7320 C.ar      1 MOL        -0.1064
     16 C12        14.2850   11.5390   19.7140 C.ar      1 MOL        -0.0980
     17 C13        13.4510   12.6990   19.6990 C.ar      1 MOL        -0.1484
     18 C14        13.5600   13.6330   18.6980 C.ar      1 MOL         0.0518
     19 C15        14.5060   13.4010   17.6880 C.ar      1 MOL        -0.1589
     20 N5         12.6590   14.7350   18.8140 N.am      1 MOL        -0.4534
     21 C16        12.5890   15.6820   17.8510 C.2       1 MOL         0.6693
     22 C17        11.4550   16.6420   17.9000 C.ar      1 MOL        -0.1040
     23 C18        11.0790   17.3300   16.7130 C.ar      1 MOL        -0.0782
     24 C19        10.0060   18.2850   16.6780 C.ar      1 MOL        -0.1228
     25 C20         9.2980   18.5360   17.8690 C.ar      1 MOL        -0.1534
     26 C21         9.6620   17.8540   19.0650 C.ar      1 MOL        -0.1228
     27 C22        10.7360   16.9080   19.1120 C.ar      1 MOL        -0.0782
     28 C23         8.1960   19.5290   17.8320 C.3       1 MOL         0.1697
     29 N6          8.1910   20.4060   18.9880 N.4       1 MOL        -0.6882
     30 C24         9.4550   21.1520   19.1060 C.3       1 MOL         0.1090
     31 C25         9.4480   22.0490   20.4020 C.3       1 MOL         0.1429
     32 N7          8.1500   22.8120   20.4470 N.3       1 MOL        -0.7414
     33 C26         8.1830   23.6190   21.6400 C.3       1 MOL         0.1527
     34 C27         6.9280   22.0290   20.3800 C.3       1 MOL         0.1429
     35 C28         6.9520   21.2300   19.0530 C.3       1 MOL         0.1090
     36 O1         13.3990   15.8030   16.9310 O.2       1 MOL        -0.5717
     37 C29        16.0750   10.0530   18.8150 C.3       1 MOL        -0.0550
     38 H1         23.8741   11.9754   13.6954 H         1 MOL         0.1498
     39 H2         22.4748   12.8224   15.5855 H         1 MOL         0.1561
     40 H3         19.1008   10.7112   13.9977 H         1 MOL         0.0243
     41 H4         22.7529   10.5797   11.9993 H         1 MOL         0.0298
     42 H5         21.3239   13.0108   17.3459 H         1 MOL         0.1610
     43 H6         19.6986   13.6365   19.1469 H         1 MOL         0.0281
     44 H7         15.9447   11.8115   15.6870 H         1 MOL         0.4573
     45 H8         14.1723   10.8231   20.5148 H         1 MOL         0.1443
     46 H9         12.7250   12.8433   20.4855 H         1 MOL         0.1729
     47 H10        14.5919   14.1059   16.8743 H         1 MOL         0.1457
     48 H11        12.0084   14.8229   19.6966 H         1 MOL         0.3204
     49 H12        11.6217   17.1264   15.8017 H         1 MOL         0.1727
     50 H13         9.7493   18.7968   15.7623 H         1 MOL         0.1396
     51 H14         9.1079   18.0576   19.9694 H         1 MOL         0.1396
     52 H15        10.9970   16.4092   20.0337 H         1 MOL         0.1727
     53 H16         8.2980   20.1566   16.9344 H         1 MOL         0.1075
     54 H17         7.2299   19.0038   17.8043 H         1 MOL         0.1075
     55 H18         8.1634   19.7681   19.8837 H         1 MOL         0.4443
     56 H19        10.2945   20.4437   19.1663 H         1 MOL         0.1096
     57 H20         9.5830   21.7982   18.2250 H         1 MOL         0.1096
     58 H21         9.5384   21.4085   21.2917 H         1 MOL         0.0748
     59 H22        10.2950   22.7500   20.3673 H         1 MOL         0.0748
     60 H23         7.2508   24.1979   21.7170 H         1 MOL         0.0575
     61 H24         9.0395   24.3077   21.5932 H         1 MOL         0.0575
     62 H25         8.2839   22.9676   22.5206 H         1 MOL         0.0575
     63 H26         6.8847   21.3429   21.2387 H         1 MOL         0.0748
     64 H27         6.0589   22.7028   20.4049 H         1 MOL         0.0748
     65 H28         6.9322   21.9299   18.2046 H         1 MOL         0.1096
     66 H29         6.0714   20.5724   19.0064 H         1 MOL         0.1096
     67 H30        15.7860    9.4755   19.7055 H         1 MOL         0.0501
     68 H31        17.1374   10.3290   18.8859 H         1 MOL         0.0501
     69 H32        15.9140    9.4428   17.9141 H         1 MOL         0.0501
@<TRIPOS>BOND
     1    1    2 ar
     2    1    6 ar
     3    1   38 1
     4    2    3 ar
     5    2   39 1
     6    3    4 ar
     7    3    7 1
     8    4    5 ar
     9    4   40 1
    10    5    6 ar
    11    6   41 1
    12    7    8 ar
    13    7   12 ar
    14    8    9 ar
    15    8   42 1
    16    9   10 ar
    17    9   43 1
    18   10   11 ar
    19   11   12 ar
    20   11   13 1
    21   13   14 1
    22   13   44 1
    23   14   15 ar
    24   14   19 ar
    25   15   16 ar
    26   15   37 1
    27   16   17 ar
    28   16   45 1
    29   17   18 ar
    30   17   46 1
    31   18   19 ar
    32   18   20 1
    33   19   47 1
    34   20   21 am
    35   20   48 1
    36   21   22 1
    37   21   36 2
    38   22   23 ar
    39   22   27 ar
    40   23   24 ar
    41   23   49 1
    42   24   25 ar
    43   24   50 1
    44   25   26 ar
    45   25   28 1
    46   26   27 ar
    47   26   51 1
    48   27   52 1
    49   28   29 1
    50   28   53 1
    51   28   54 1
    52   29   30 1
    53   29   35 1
    54   29   55 1
    55   30   31 1
    56   30   56 1
    57   30   57 1
    58   31   32 1
    59   31   58 1
    60   31   59 1
    61   32   33 1
    62   32   34 1
    63   33   60 1
    64   33   61 1
    65   33   62 1
    66   34   35 1
    67   34   63 1
    68   34   64 1
    69   35   65 1
    70   35   66 1
    71   37   67 1
    72   37   68 1
    73   37   69 1
