@<TRIPOS>MOLECULE
*****
 126 147 0 0 0
SMALL
GASTEIGER

@<TRIPOS>ATOM
      1 O           7.9810    6.3120    9.6190 O.2     1  LIG1       -0.2522
      2 O           8.6160    6.7630   13.0940 O.2     1  LIG1       -0.2522
      3 O          11.4990    8.8020   14.3330 O.2     1  LIG1       -0.2522
      4 O          13.9010   10.7250   12.3460 O.2     1  LIG1       -0.2522
      5 O          13.9930   11.0630    8.7380 O.2     1  LIG1       -0.2522
      6 O          11.8770    9.7700    5.9860 O.2     1  LIG1       -0.2522
      7 O           9.1120    7.6730    6.3630 O.2     1  LIG1       -0.2522
      8 O          10.9580    1.2320    9.0820 O.2     1  LIG1       -0.2522
      9 O          12.1450    1.8660   12.2420 O.2     1  LIG1       -0.2522
     10 O          15.1520    3.9920   13.3920 O.2     1  LIG1       -0.2522
     11 O          17.6000    6.0220   11.7040 O.2     1  LIG1       -0.2522
     12 O          17.8950    6.4610    8.3400 O.2     1  LIG1       -0.2522
     13 O          15.5980    4.9260    5.9100 O.2     1  LIG1       -0.2522
     14 O          12.5750    2.7060    6.3020 O.2     1  LIG1       -0.2522
     15 N           8.0200    4.4590    8.2180 N.am    1  LIG1       -0.2471
     16 N           7.8470    4.1490   10.4160 N.am    1  LIG1       -0.2471
     17 N           8.6010    4.4960   12.6900 N.am    1  LIG1       -0.2471
     18 N           9.9810    5.3030   14.2280 N.am    1  LIG1       -0.2471
     19 N          11.8550    6.6160   15.0170 N.am    1  LIG1       -0.2471
     20 N          13.6210    7.9520   14.7490 N.am    1  LIG1       -0.2471
     21 N          15.2540    9.3600   13.6400 N.am    1  LIG1       -0.2471
     22 N          16.0740   10.1810   11.7570 N.am    1  LIG1       -0.2471
     23 N          16.1550   10.4410    9.3370 N.am    1  LIG1       -0.2471
     24 N          15.4730   10.0900    7.2490 N.am    1  LIG1       -0.2471
     25 N          14.0510    9.1100    5.5600 N.am    1  LIG1       -0.2471
     26 N          12.4040    7.9000    4.7290 N.am    1  LIG1       -0.2471
     27 N          10.4400    6.4730    4.9140 N.am    1  LIG1       -0.2471
     28 N           9.0500    5.3550    6.2230 N.am    1  LIG1       -0.2471
     29 N           9.2850    2.4120    8.0200 N.am    1  LIG1       -0.2471
     30 N           9.0900    2.0490   10.1910 N.am    1  LIG1       -0.2471
     31 N           9.9430    2.4820   12.4400 N.am    1  LIG1       -0.2471
     32 N          11.3960    3.3580   13.8430 N.am    1  LIG1       -0.2471
     33 N          13.3040    4.6970   14.5770 N.am    1  LIG1       -0.2471
     34 N          15.0870    6.0160   14.4930 N.am    1  LIG1       -0.2471
     35 N          16.6800    7.4030   13.3210 N.am    1  LIG1       -0.2471
     36 N          17.6530    8.3410   11.5570 N.am    1  LIG1       -0.2471
     37 N          17.7760    8.6310    9.1440 N.am    1  LIG1       -0.2471
     38 N          16.9920    8.1860    7.1210 N.am    1  LIG1       -0.2471
     39 N          15.5630    7.1910    5.4540 N.am    1  LIG1       -0.2471
     40 N          13.8650    5.9410    4.7580 N.am    1  LIG1       -0.2471
     41 N          11.9230    4.5420    5.0540 N.am    1  LIG1       -0.2471
     42 N          10.3490    3.3060    6.0340 N.am    1  LIG1       -0.2471
     43 C           7.9560    5.0890    9.4350 C.2     1  LIG1        0.3102
     44 C           7.4750    4.4650   11.7760 C.3     1  LIG1        0.0902
     45 H           6.8220    3.7930   12.0950 H       1  LIG1        0.0676
     46 H           7.0300    5.3490   11.7880 H       1  LIG1        0.0676
     47 C           9.0090    5.6390   13.3100 C.2     1  LIG1        0.3102
     48 C          10.4610    6.2390   15.2170 C.3     1  LIG1        0.0902
     49 H          10.3630    5.8340   16.1150 H       1  LIG1        0.0676
     50 H           9.8990    7.0520   15.1880 H       1  LIG1        0.0676
     51 C          12.2410    7.8920   14.6630 C.2     1  LIG1        0.3102
     52 C          14.3420    9.2170   14.7490 C.3     1  LIG1        0.0902
     53 H          13.6880    9.9600   14.7230 H       1  LIG1        0.0676
     54 H          14.8520    9.2950   15.5960 H       1  LIG1        0.0676
     55 C          14.9650   10.1310   12.5510 C.2     1  LIG1        0.3102
     56 C          16.1830   11.0870   10.6270 C.3     1  LIG1        0.0902
     57 H          15.4390   11.7390   10.6720 H       1  LIG1        0.0676
     58 H          17.0290   11.5940   10.7100 H       1  LIG1        0.0676
     59 C          15.0940   10.5800    8.4670 C.2     1  LIG1        0.3102
     60 C          14.6950   10.2980    6.0670 C.3     1  LIG1        0.0902
     61 H          15.2840   10.6660    5.3580 H       1  LIG1        0.0676
     62 H          14.0000   10.9780    6.2590 H       1  LIG1        0.0676
     63 C          12.7060    8.9930    5.4780 C.2     1  LIG1        0.3102
     64 C          11.0490    7.6080    4.2540 C.3     1  LIG1        0.0902
     65 H          10.4800    8.4050    4.4000 H       1  LIG1        0.0676
     66 H          11.0800    7.4330    3.2800 H       1  LIG1        0.0676
     67 C           9.5070    6.6010    5.8890 C.2     1  LIG1        0.3102
     68 C           7.8100    5.1540    6.9740 C.3     1  LIG1        0.0902
     69 H           7.3980    6.0360    7.1640 H       1  LIG1        0.0676
     70 H           7.1760    4.6370    6.4210 H       1  LIG1        0.0676
     71 C           8.0180    3.0300    8.3410 C.3     1  LIG1        0.1358
     72 H           7.2590    2.6110    7.8410 H       1  LIG1        0.0749
     73 C           7.9000    2.8020    9.8780 C.3     1  LIG1        0.1358
     74 H           7.0740    2.2890   10.1060 H       1  LIG1        0.0749
     75 C           9.1270    3.2980   13.3160 C.3     1  LIG1        0.1358
     76 H           8.4070    2.7640   13.7620 H       1  LIG1        0.0749
     77 C          10.1420    3.8650   14.3410 C.3     1  LIG1        0.1358
     78 H           9.9550    3.5410   15.2670 H       1  LIG1        0.0749
     79 C          12.9710    5.7880   15.4600 C.3     1  LIG1        0.1358
     80 H          12.8410    5.4720   16.4000 H       1  LIG1        0.0749
     81 C          14.1790    6.7360   15.3500 C.3     1  LIG1        0.1358
     82 H          14.5860    6.9220   16.2450 H       1  LIG1        0.0749
     83 C          16.5980    8.8300   13.6040 C.3     1  LIG1        0.1358
     84 H          17.1130    9.0740   14.4260 H       1  LIG1        0.0749
     85 C          17.2050    9.4700   12.3320 C.3     1  LIG1        0.1358
     86 H          17.9570   10.0900   12.5540 H       1  LIG1        0.0749
     87 C          17.3360    9.9170    8.6730 C.3     1  LIG1        0.1358
     88 H          18.0830   10.5840    8.6760 H       1  LIG1        0.0749
     89 C          16.8500    9.6330    7.2430 C.3     1  LIG1        0.1358
     90 H          17.3990   10.1170    6.5600 H       1  LIG1        0.0749
     91 C          14.7380    8.1420    4.7130 C.3     1  LIG1        0.1358
     92 H          15.2390    8.5760    3.9630 H       1  LIG1        0.0749
     93 C          13.5630    7.2420    4.2000 C.3     1  LIG1        0.1358
     94 H          13.5390    7.2110    3.2010 H       1  LIG1        0.0749
     95 C          10.6750    5.0850    4.5480 C.3     1  LIG1        0.1358
     96 H          10.5780    4.9410    3.5650 H       1  LIG1        0.0749
     97 C           9.6040    4.3280    5.3450 C.3     1  LIG1        0.1358
     98 H           8.9050    3.9380    4.7440 H       1  LIG1        0.0749
     99 C           9.8810    1.8440    9.1030 C.2     1  LIG1        0.3102
    100 C           9.3610    1.5140   11.5160 C.3     1  LIG1        0.0902
    101 H           9.9810    0.7470   11.4280 H       1  LIG1        0.0676
    102 H           8.5140    1.1760   11.9020 H       1  LIG1        0.0676
    103 C          11.2500    2.5130   12.7720 C.2     1  LIG1        0.3102
    104 C          12.6270    3.4230   14.6290 C.3     1  LIG1        0.0902
    105 H          12.4080    3.2190   15.5740 H       1  LIG1        0.0676
    106 H          13.2450    2.7220   14.3090 H       1  LIG1        0.0676
    107 C          14.5690    4.8260   14.0780 C.2     1  LIG1        0.3102
    108 C          16.4750    6.3880   14.3190 C.3     1  LIG1        0.0902
    109 H          16.8310    6.7140   15.1820 H       1  LIG1        0.0676
    110 H          16.9930    5.5830   14.0620 H       1  LIG1        0.0676
    111 C          17.3330    7.1410   12.1420 C.2     1  LIG1        0.3102
    112 C          18.4940    8.4290   10.3840 C.3     1  LIG1        0.0902
    113 H          19.1300    9.1780   10.5040 H       1  LIG1        0.0676
    114 H          19.0240    7.5960   10.3110 H       1  LIG1        0.0676
    115 C          17.5800    7.6440    8.2200 C.2     1  LIG1        0.3102
    116 C          16.9160    7.4830    5.8450 C.3     1  LIG1        0.0902
    117 H          17.3440    8.0350    5.1460 H       1  LIG1        0.0676
    118 H          17.4220    6.6340    5.9150 H       1  LIG1        0.0676
    119 C          15.0520    5.9210    5.4240 C.2     1  LIG1        0.3102
    120 C          13.1780    4.7290    4.3650 C.3     1  LIG1        0.0902
    121 H          13.0080    4.7570    3.3880 H       1  LIG1        0.0676
    122 H          13.7650    3.9540    4.5450 H       1  LIG1        0.0676
    123 C          11.7050    3.4550    5.8450 C.2     1  LIG1        0.3102
    124 C           9.7580    2.1660    6.6640 C.3     1  LIG1        0.0902
    125 H          10.4240    1.4330    6.6860 H       1  LIG1        0.0676
    126 H           8.9950    1.8580    6.1110 H       1  LIG1        0.0676
@<TRIPOS>BOND
     1     1    43    2
     2     2    47    2
     3     3    51    2
     4     4    55    2
     5     5    59    2
     6     6    63    2
     7     7    67    2
     8     8    99    2
     9     9   103    2
    10    10   107    2
    11    11   111    2
    12    12   115    2
    13    13   119    2
    14    14   123    2
    15    15    43   am
    16    15    68    1
    17    15    71    1
    18    16    43   am
    19    16    44    1
    20    16    73    1
    21    17    44    1
    22    17    47   am
    23    17    75    1
    24    18    47   am
    25    18    48    1
    26    18    77    1
    27    19    48    1
    28    19    51   am
    29    19    79    1
    30    20    51   am
    31    20    52    1
    32    20    81    1
    33    21    52    1
    34    21    55   am
    35    21    83    1
    36    22    55   am
    37    22    56    1
    38    22    85    1
    39    23    56    1
    40    23    59   am
    41    23    87    1
    42    24    59   am
    43    24    60    1
    44    24    89    1
    45    25    60    1
    46    25    63   am
    47    25    91    1
    48    26    63   am
    49    26    64    1
    50    26    93    1
    51    27    64    1
    52    27    67   am
    53    27    95    1
    54    28    67   am
    55    28    68    1
    56    28    97    1
    57    29    71    1
    58    29    99   am
    59    29   124    1
    60    30    73    1
    61    30    99   am
    62    30   100    1
    63    31    75    1
    64    31   100    1
    65    31   103   am
    66    32    77    1
    67    32   103   am
    68    32   104    1
    69    33    79    1
    70    33   104    1
    71    33   107   am
    72    34    81    1
    73    34   107   am
    74    34   108    1
    75    35    83    1
    76    35   108    1
    77    35   111   am
    78    36    85    1
    79    36   111   am
    80    36   112    1
    81    37    87    1
    82    37   112    1
    83    37   115   am
    84    38    89    1
    85    38   115   am
    86    38   116    1
    87    39    91    1
    88    39   116    1
    89    39   119   am
    90    40    93    1
    91    40   119   am
    92    40   120    1
    93    41    95    1
    94    41   120    1
    95    41   123   am
    96    42    97    1
    97    42   123   am
    98    42   124    1
    99    44    45    1
   100    44    46    1
   101    48    49    1
   102    48    50    1
   103    52    53    1
   104    52    54    1
   105    56    57    1
   106    56    58    1
   107    60    61    1
   108    60    62    1
   109    64    65    1
   110    64    66    1
   111    68    69    1
   112    68    70    1
   113    71    72    1
   114    71    73    1
   115    73    74    1
   116    75    76    1
   117    75    77    1
   118    77    78    1
   119    79    80    1
   120    79    81    1
   121    81    82    1
   122    83    84    1
   123    83    85    1
   124    85    86    1
   125    87    88    1
   126    87    89    1
   127    89    90    1
   128    91    92    1
   129    91    93    1
   130    93    94    1
   131    95    96    1
   132    95    97    1
   133    97    98    1
   134   100   101    1
   135   100   102    1
   136   104   105    1
   137   104   106    1
   138   108   109    1
   139   108   110    1
   140   112   113    1
   141   112   114    1
   142   116   117    1
   143   116   118    1
   144   120   121    1
   145   120   122    1
   146   124   125    1
   147   124   126    1
